
     RDKit          3D

 11 10  0  0  0  0  0  0  0  0999 V2000
   -4.1742   -1.8682    0.4820 N   0  0  0  0  0  0  0  0  0  0  0  0
   -3.5226   -1.6259    0.5018 C   0  0  0  0  0  0  0  0  0  0  0  0
   -2.8086   -1.3588    0.4983 C   0  0  0  0  0  0  0  0  0  0  0  0
   -1.6802   -0.9209    0.4311 C   0  0  0  0  0  0  0  0  0  0  0  0
   -0.6164   -0.5661    0.4563 C   0  0  0  0  0  0  0  0  0  0  0  0
    0.7606   -0.0126    0.2748 C   0  0  0  0  0  0  0  0  0  0  0  0
    1.6105    0.3511    0.1515 C   0  0  0  0  0  0  0  0  0  0  0  0
    1.8346    0.4130    0.1623 O   0  0  0  0  0  0  0  0  0  0  0  0
    1.8080    0.3960    0.1908 C   0  0  0  0  0  0  0  0  0  0  0  0
    1.3254    0.1725    0.2335 N   0  0  0  0  0  0  0  0  0  0  0  0
    1.5573    0.2385    0.1907 C   0  0  0  0  0  0  0  0  0  0  0  0
  1  2  1  0
  2  3  1  0
  3  4  1  0
  4  5  1  0
  6  5  1  0
  6  7  1  0
  7  8  2  0
  7  9  1  0
  6 10  1  0
 10 11  1  0
M  END
